&NAM_CH_ISBAn
	CCH_DRY_DEP = "WES89 "
/

&NAM_COVER
	YCOVER = 'ECOCLIMAP_II_EUROP'
	YCOVERFILETYPE = 'DIRECT'
	XRM_COVER = 0.01
/

&NAM_DATA_ISBA
	NTIME = 12
	XUNIF_VEGTYPE(1) = 0.
	XUNIF_VEGTYPE(2) = 0.
	XUNIF_VEGTYPE(3) = 0.
	XUNIF_VEGTYPE(4) = 0.
	XUNIF_VEGTYPE(5) = 0.
	XUNIF_VEGTYPE(6) = 0.
	XUNIF_VEGTYPE(7) = 0.
	XUNIF_VEGTYPE(8) = 0.
	XUNIF_VEGTYPE(9) = 0.
	XUNIF_VEGTYPE(10) = 1.
	XUNIF_VEGTYPE(11) = 0.
	XUNIF_VEGTYPE(12) = 0.
	XUNIF_VEGTYPE(13) = 0.
	XUNIF_VEGTYPE(14) = 0.
	XUNIF_VEGTYPE(15) = 0.
	XUNIF_VEGTYPE(16) = 0.
	XUNIF_VEGTYPE(17) = 0.
	XUNIF_VEGTYPE(18) = 0.
	XUNIF_VEGTYPE(19) = 0.
/

&NAM_DIAG_ISBAn
	LPGD = T
	LSURF_EVAP_BUDGET = T
	LSURF_MISC_BUDGET = T
/

&NAM_DIAG_SURF_ATMn
	LFRAC = F
/

&NAM_DIAG_SURFn
	LSURF_BUDGET = T
	N2M = 1
	LRAD_BUDGET = T
	LCOEF = F
	LSURF_VARS = T
	LSURF_BUDGETC = F
/

&NAM_FRAC
	LECOCLIMAP = T
	XUNIF_SEA = 0.
	XUNIF_WATER = 0.
	XUNIF_TOWN = 0.
	XUNIF_NATURE = 1.
/

&NAM_IO_OFFLINE
	LPRINT = T
	CFORCING_FILETYPE = 'ASCII '
	CSURF_FILETYPE = 'ASCII '
	CTIMESERIES_FILETYPE = 'NETCDF'
	XTSTEP_SURF = 300.
	XTSTEP_OUTPUT = 1800.
/

&NAM_ISBA
	XUNIF_CLAY = 0.145
	XUNIF_SAND = 0.51
	YSANDFILETYPE = 'DIRECT'
	XUNIF_RUNOFFB = 0.0
	XUNIF_WDRAIN = 0.000
	CPEDO_FUNCTION = 'CH78'
	CALBEDO = 'DRY'
	CISBA = 'DIF'
	CPHOTO = 'AST'
	LTR_ML = .true.
	NPATCH = 12
	LMEB = .TRUE.
	NGROUND_LAYER = 14
	!XSOILGRID = 0.005,0.02,0.04,0.06,0.08,0.12,0.16,0.25,0.35,0.45,0.55,0.65,0.75,0.85,0.95,1.08,1.3,1.5,1.7,1.9,2.1,2.4,3.5,5.0
	!CGNDRES = 'DSL'
/

&NAM_ISBAn
	CSCOND = "PL98"
	CC1DRY = 'DEF '
	CSOILFRZ = 'LWT'
	CDIFSFCOND = 'DEF '
	CSNOWRES = 'RIL'
	CCPSURF = 'DRY'
/

&NAM_LONLAT_REG
	XLONMIN = 1.35
	XLONMAX = 1.38
	XLATMIN = 43.55
	XLATMAX = 43.58
	NLON = 1
	NLAT = 1
/

&NAM_MEB_ISBA
	LMEB_PATCH = .F., .F., .F., .F., .F., .F., .F., .F., .F., .T., .F., .F.
	LFORC_MEASURE = .T.
	LMEB_LITTER = .F.
	!CMEB_GNDRES = 'DSL'
/

&NAM_PGD_ARRANGE_COVER
	LWATER_TO_NATURE = T
	LTOWN_TO_ROCK = T
/

&NAM_PGD_GRID
	CGRID = 'LONLAT REG'
/

&NAM_PGD_SCHEMES
	CNATURE = 'ISBA  '
	CSEA = 'NONE  '
	CTOWN = 'NONE  '
	CWATER = 'NONE  '
/

&NAM_PREP_ISBA
	XHUG_SURF = 0.47
	XHUG_ROOT = 0.27
	XHUG_DEEP = 0.60
	XTG_SURF = 277.00
	XTG_ROOT = 281.60
	XTG_DEEP = 286.65
/

&NAM_PREP_ISBA_SNOW
	CSNOW = '3-L'
/

&NAM_PREP_SURF_ATM
	NYEAR = 2017
	NMONTH = 01
	NDAY = 01
	XTIME = 0.
/

&NAM_PREPFILE
	CPREPFILE = 'PREP'
/

&NAM_SGH_ISBAn
	CRUNOFF = "WSAT"
/

&NAM_SURF_CSTS
	XTAU_LW = 0.4
/

&NAM_WRITE_DIAG_SURFn
	LPROVAR_TO_DIAG = T
	LSELECT = F
/

&NAM_WRITE_SURF_ATM
	LSPLIT_PATCH = T
/

&NAM_ZS
	XUNIF_ZS = 150.
/

