&nam_cover
    ycover = 'ecosg_final_map'
    ycoverfiletype = 'DIRECT'
 &nam_diag_isban
    lpatch_budget = .true.
    lpgd = .true.
    lsurf_misc_budget = .true.
    lsurf_misc_dif = .true.
    LSURF_EVAP_BUDGET = T , 
/

&nam_diag_surf_atmn
    lt2mmw = .true.
/

&nam_diag_surfn
    lcoef = .true.
    lreset_budgetc = .true.
    lsurf_budget = .true.
    lsurf_budgetc = .true.
    lsurf_vars = .true.
    n2m = 2
/

&nam_flaken
    lsediments = .false.
/

&nam_frac
    lecosg = .true.
/

&nam_io_offline
    lfagmap = .true.
    lrestart_2m = .true.
    nhalo = 0
    lprint                = T                       ,
    cpgdfile              = 'PGD'
    cprepfile             = 'PREP'
    csurffile             = 'SURFOUT'
    csurf_filetype        = 'NC'
    cforcing_filetype     = 'ASCII ' ,
    csurf_filetype        = 'NC '   ,
    ctimeseries_filetype  = 'NETCDF '  ,
    xtstep_surf           = 300.    ,
    xtstep_output         = 1800.   ,
    llimit_qair           = T       ,
    lset_forc_zs          = F       ,
    xdelta_orog           = 2200.   ,
    lrestart              = T       ,
    lrestart_2m           = .true.
    lprint                = T       ,
    lout_tilename         = T       ,
    lwrite_coord          = T       ,
    nb_read_forc          = 0       ,
    lallow_add_dim        = F
    
/

&nam_isba
    cgndres = 'DSL'
    cisba = 'DIF'
    cpedo_function = 'CO84'
    cphoto = 'NON'
    lmeb = .true.
    nground_layer = 14
    npatch = 2
    xunif_runoffb = 0.2
    yclay = 'CLAY_SOILGRID.dir'
    yclayfiletype = 'DIRECT'
    ysand = 'SAND_SOILGRID.dir'
    ysandfiletype = 'DIRECT'
    ysocfiletype = 'DIRECT'
    ysoc_sub = 'soc_sub'
    ysoc_top = 'soc_top'
/
&nam_meb_isba
    cmeb_gndres = 'DSL'
    lmeb_litter = .true.
    lmeb_patch = .false., .true.
    LFORC_MEASURE = .T.,
/
&nam_pgd_schemes
    cnature = 'ISBA'
    csea = 'SEAFLX'
    ctown = 'TEB'
    cwater = 'FLAKE'
/
&nam_seafluxn
    csea_flux = 'ECUME6'
    lpertflux = .false.
    lprecip = .false.
    lpwebb = .false.
    lpwg = .false.
/
&nam_seaice_sice
    lice_has_snow = .false.
    lice_mass_balance = .true.
    xocean_heat_flux = 2.0
/
&nam_seabathy
    xunif_seabathy = 0.0
/
&nam_sgh_isban
    chort = 'DEF'
    crain = 'SGH'
    crunoff = 'DT92'
    lsoc = .true.
/
&nam_sson
    crough = 'OROT'
    xcorot = 500
    xfracz0 = 15.0
    xsorot = 2500.0
    xvorot = 8.0
/
&nam_surf_atm
    xcd_coeff1 = 10.0
    xcd_coeff2 = 5.0
    xch_coeff1 = 15.0
    xrimax = 0.4
/
&nam_surf_csts
    xz0hsn = 0.0003
    xz0sn = 0.003
/
&NAM_PREP_SURF_ATM NYEAR  = 2019,
                   NMONTH = 01,
                   NDAY   = 01,
                   XTIME  = 0.  
/
&nam_surf_snow_csts
    lessoilsnowflux = .true.
/
&nam_treedrag
    lfaketree = .false., .true., .true., .true., .true., .true., .true.
    xallen_term = 2.5
    xforfrac1 = 1.0
    xforfrac2 = 0.0
    xforlat1 = 1.0
    xforlat2 = 0.0
    xgrass_h_dnm = 3.0
    xz0_max_limit = 1.6
    xz0_min_limit = 0.0
/
&nam_write_diag_surfn
    cselect = 'FMU', 'FMV', 'T2M', 'T2MMIN', 'T2MMAX', 'Q2M', 'HU2M', 'HU2MMIN',
              'HU2MMAX', 'ZON10M', 'MER10M', 'W10M', 'W10MMAX', 'TS', 'RI',
              'RN', 'H', 'LE', 'SWD', 'SWU', 'LWD', 'LWU', 'GFLUX', 'Z0',
              'Z0H', 'T2M_ISBA', 'T2MMIN_ISBA', 'T2MMAX_ISBA', 'Q2M_ISBA',
              'MER10M_ISBA', 'ZON10M_ISBA', 'HU2M_ISBA', 'W10M_ISBA', 'W10MMAX_ISBA',
              'PSNG_ISBA', 'PSNV_ISBA', 'PSN_ISBA', 'DSN_T_ISBA', 'WSN_T_ISBA',
              'TSWI_T_ISBA', 'TALB_ISBA', 'TS_ISBA', 'RNC_ISBA', 'HC_ISBA',
              'LEC_ISBA', 'FMUC_ISBA', 'FMVC_ISBA', 'SWDC_ISBA', 'SWUC_ISBA',
              'LWDC_ISBA', 'LWUC_ISBA', 'T2M_P', 'T2MMIN_P', 'T2MMAX_P',
              'Q2M_P', 'HU2M_P', 'ZON10M_P', 'MER10M_P', 'W10M_P', 'DSN_T_P',
              'TG1', 'TG2', 'WG1', 'WG2', 'WGI1', 'WGI2', 'RSN_VEG1', 'WSN_VEG1',
              'ASN_VEG', 'PSN', 'LAI', 'RNC_P', 'HC_P', 'LEC_P', 'FMUC_P',
              'FMVC_P', 'SWDC_P', 'SWUC_P', 'LWDC_P', 'LWUC_P', 'T2M_SEA',
              'HU2M_SEA', 'Q2M_SEA', 'MER10M_SEA', 'ZON10M_SEA', 'W10M_SEA',
              'W10MMAX_SEA', 'SST', 'SIC', 'TICE_01', 'TICE_02', 'TICE_03',
              'TICE_04', 'T2M_WAT', 'Q2M_WAT', 'HU2M_WAT', 'ZON10M_WAT',
              'MER10M_WAT', 'W10M_WAT', 'TS_WATER', 'T2M_TEB', 'Q2M_TEB',
              'HU2M_TEB', 'ZON10M_TEB', 'MER10M_TEB', 'T2MMIN_TEB', 'T2MMAX_TEB',
              'HU2MMIN_TEB', 'HU2MMAX_TEB', 'W10MMAX_TEB', 'TROAD1', 'T_SNOW',
              'T_ICE', 'T_WML', 'T_MNW', 'T_BOT', 'H_ML', 'H_SNOW', 'H_ICE',
              'WS_ROAD', 'WSN_RD1', 'VEG', 'EMIS', 'CD', 'CH', 'CE'
    lselect = .true.
    lprovar_to_diag=.TRUE.
/
&nam_write_surf_atm
    lsplit_patch = .true.
/
&nam_zs
    yzs = 'gmted2010'
    yzsfiletype = 'DIRECT'
/
&nam_data_isba
    cfnam_albnir_soil(:,1) = 'albnir_soil_1_0105', 'albnir_soil_2_0105',
                             'albnir_soil_3_0105', 'albnir_soil_4_0105',
                             'albnir_soil_5_0105', 'albnir_soil_6_0105',
                             'albnir_soil_7_0105', 'albnir_soil_8_0105',
                             'albnir_soil_9_0105', 'albnir_soil_10_0105',
                             'albnir_soil_11_0105', 'albnir_soil_12_0105',
                             'albnir_soil_13_0105', 'albnir_soil_14_0105',
                             'albnir_soil_15_0105', 'albnir_soil_16_0105',
                             'albnir_soil_17_0105', 'albnir_soil_18_0105',
                             'albnir_soil_19_0105', 'albnir_soil_20_0105'
    cfnam_albnir_soil(:,2) = 'albnir_soil_1_0115', 'albnir_soil_2_0115',
                             'albnir_soil_3_0115', 'albnir_soil_4_0115',
                             'albnir_soil_5_0115', 'albnir_soil_6_0115',
                             'albnir_soil_7_0115', 'albnir_soil_8_0115',
                             'albnir_soil_9_0115', 'albnir_soil_10_0115',
                             'albnir_soil_11_0115', 'albnir_soil_12_0115',
                             'albnir_soil_13_0115', 'albnir_soil_14_0115',
                             'albnir_soil_15_0115', 'albnir_soil_16_0115',
                             'albnir_soil_17_0115', 'albnir_soil_18_0115',
                             'albnir_soil_19_0115', 'albnir_soil_20_0115'
    cfnam_albnir_soil(:,3) = 'albnir_soil_1_0125', 'albnir_soil_2_0125',
                             'albnir_soil_3_0125', 'albnir_soil_4_0125',
                             'albnir_soil_5_0125', 'albnir_soil_6_0125',
                             'albnir_soil_7_0125', 'albnir_soil_8_0125',
                             'albnir_soil_9_0125', 'albnir_soil_10_0125',
                             'albnir_soil_11_0125', 'albnir_soil_12_0125',
                             'albnir_soil_13_0125', 'albnir_soil_14_0125',
                             'albnir_soil_15_0125', 'albnir_soil_16_0125',
                             'albnir_soil_17_0125', 'albnir_soil_18_0125',
                             'albnir_soil_19_0125', 'albnir_soil_20_0125'
    cfnam_albnir_soil(:,4) = 'albnir_soil_1_0205', 'albnir_soil_2_0205',
                             'albnir_soil_3_0205', 'albnir_soil_4_0205',
                             'albnir_soil_5_0205', 'albnir_soil_6_0205',
                             'albnir_soil_7_0205', 'albnir_soil_8_0205',
                             'albnir_soil_9_0205', 'albnir_soil_10_0205',
                             'albnir_soil_11_0205', 'albnir_soil_12_0205',
                             'albnir_soil_13_0205', 'albnir_soil_14_0205',
                             'albnir_soil_15_0205', 'albnir_soil_16_0205',
                             'albnir_soil_17_0205', 'albnir_soil_18_0205',
                             'albnir_soil_19_0205', 'albnir_soil_20_0205'
    cfnam_albnir_soil(:,5) = 'albnir_soil_1_0215', 'albnir_soil_2_0215',
                             'albnir_soil_3_0215', 'albnir_soil_4_0215',
                             'albnir_soil_5_0215', 'albnir_soil_6_0215',
                             'albnir_soil_7_0215', 'albnir_soil_8_0215',
                             'albnir_soil_9_0215', 'albnir_soil_10_0215',
                             'albnir_soil_11_0215', 'albnir_soil_12_0215',
                             'albnir_soil_13_0215', 'albnir_soil_14_0215',
                             'albnir_soil_15_0215', 'albnir_soil_16_0215',
                             'albnir_soil_17_0215', 'albnir_soil_18_0215',
                             'albnir_soil_19_0215', 'albnir_soil_20_0215'
    cfnam_albnir_soil(:,6) = 'albnir_soil_1_0225', 'albnir_soil_2_0225',
                             'albnir_soil_3_0225', 'albnir_soil_4_0225',
                             'albnir_soil_5_0225', 'albnir_soil_6_0225',
                             'albnir_soil_7_0225', 'albnir_soil_8_0225',
                             'albnir_soil_9_0225', 'albnir_soil_10_0225',
                             'albnir_soil_11_0225', 'albnir_soil_12_0225',
                             'albnir_soil_13_0225', 'albnir_soil_14_0225',
                             'albnir_soil_15_0225', 'albnir_soil_16_0225',
                             'albnir_soil_17_0225', 'albnir_soil_18_0225',
                             'albnir_soil_19_0225', 'albnir_soil_20_0225'
    cfnam_albnir_soil(:,7) = 'albnir_soil_1_0305', 'albnir_soil_2_0305',
                             'albnir_soil_3_0305', 'albnir_soil_4_0305',
                             'albnir_soil_5_0305', 'albnir_soil_6_0305',
                             'albnir_soil_7_0305', 'albnir_soil_8_0305',
                             'albnir_soil_9_0305', 'albnir_soil_10_0305',
                             'albnir_soil_11_0305', 'albnir_soil_12_0305',
                             'albnir_soil_13_0305', 'albnir_soil_14_0305',
                             'albnir_soil_15_0305', 'albnir_soil_16_0305',
                             'albnir_soil_17_0305', 'albnir_soil_18_0305',
                             'albnir_soil_19_0305', 'albnir_soil_20_0305'
    cfnam_albnir_soil(:,8) = 'albnir_soil_1_0315', 'albnir_soil_2_0315',
                             'albnir_soil_3_0315', 'albnir_soil_4_0315',
                             'albnir_soil_5_0315', 'albnir_soil_6_0315',
                             'albnir_soil_7_0315', 'albnir_soil_8_0315',
                             'albnir_soil_9_0315', 'albnir_soil_10_0315',
                             'albnir_soil_11_0315', 'albnir_soil_12_0315',
                             'albnir_soil_13_0315', 'albnir_soil_14_0315',
                             'albnir_soil_15_0315', 'albnir_soil_16_0315',
                             'albnir_soil_17_0315', 'albnir_soil_18_0315',
                             'albnir_soil_19_0315', 'albnir_soil_20_0315'
    cfnam_albnir_soil(:,9) = 'albnir_soil_1_0325', 'albnir_soil_2_0325',
                             'albnir_soil_3_0325', 'albnir_soil_4_0325',
                             'albnir_soil_5_0325', 'albnir_soil_6_0325',
                             'albnir_soil_7_0325', 'albnir_soil_8_0325',
                             'albnir_soil_9_0325', 'albnir_soil_10_0325',
                             'albnir_soil_11_0325', 'albnir_soil_12_0325',
                             'albnir_soil_13_0325', 'albnir_soil_14_0325',
                             'albnir_soil_15_0325', 'albnir_soil_16_0325',
                             'albnir_soil_17_0325', 'albnir_soil_18_0325',
                             'albnir_soil_19_0325', 'albnir_soil_20_0325'
    cfnam_albnir_soil(:,10) = 'albnir_soil_1_0405', 'albnir_soil_2_0405',
                              'albnir_soil_3_0405', 'albnir_soil_4_0405',
                              'albnir_soil_5_0405', 'albnir_soil_6_0405',
                              'albnir_soil_7_0405', 'albnir_soil_8_0405',
                              'albnir_soil_9_0405', 'albnir_soil_10_0405',
                              'albnir_soil_11_0405', 'albnir_soil_12_0405',
                              'albnir_soil_13_0405', 'albnir_soil_14_0405',
                              'albnir_soil_15_0405', 'albnir_soil_16_0405',
                              'albnir_soil_17_0405', 'albnir_soil_18_0405',
                              'albnir_soil_19_0405', 'albnir_soil_20_0405'
    cfnam_albnir_soil(:,11) = 'albnir_soil_1_0415', 'albnir_soil_2_0415',
                              'albnir_soil_3_0415', 'albnir_soil_4_0415',
                              'albnir_soil_5_0415', 'albnir_soil_6_0415',
                              'albnir_soil_7_0415', 'albnir_soil_8_0415',
                              'albnir_soil_9_0415', 'albnir_soil_10_0415',
                              'albnir_soil_11_0415', 'albnir_soil_12_0415',
                              'albnir_soil_13_0415', 'albnir_soil_14_0415',
                              'albnir_soil_15_0415', 'albnir_soil_16_0415',
                              'albnir_soil_17_0415', 'albnir_soil_18_0415',
                              'albnir_soil_19_0415', 'albnir_soil_20_0415'
    cfnam_albnir_soil(:,12) = 'albnir_soil_1_0425', 'albnir_soil_2_0425',
                              'albnir_soil_3_0425', 'albnir_soil_4_0425',
                              'albnir_soil_5_0425', 'albnir_soil_6_0425',
                              'albnir_soil_7_0425', 'albnir_soil_8_0425',
                              'albnir_soil_9_0425', 'albnir_soil_10_0425',
                              'albnir_soil_11_0425', 'albnir_soil_12_0425',
                              'albnir_soil_13_0425', 'albnir_soil_14_0425',
                              'albnir_soil_15_0425', 'albnir_soil_16_0425',
                              'albnir_soil_17_0425', 'albnir_soil_18_0425',
                              'albnir_soil_19_0425', 'albnir_soil_20_0425'
    cfnam_albnir_soil(:,13) = 'albnir_soil_1_0505', 'albnir_soil_2_0505',
                              'albnir_soil_3_0505', 'albnir_soil_4_0505',
                              'albnir_soil_5_0505', 'albnir_soil_6_0505',
                              'albnir_soil_7_0505', 'albnir_soil_8_0505',
                              'albnir_soil_9_0505', 'albnir_soil_10_0505',
                              'albnir_soil_11_0505', 'albnir_soil_12_0505',
                              'albnir_soil_13_0505', 'albnir_soil_14_0505',
                              'albnir_soil_15_0505', 'albnir_soil_16_0505',
                              'albnir_soil_17_0505', 'albnir_soil_18_0505',
                              'albnir_soil_19_0505', 'albnir_soil_20_0505'
    cfnam_albnir_soil(:,14) = 'albnir_soil_1_0515', 'albnir_soil_2_0515',
                              'albnir_soil_3_0515', 'albnir_soil_4_0515',
                              'albnir_soil_5_0515', 'albnir_soil_6_0515',
                              'albnir_soil_7_0515', 'albnir_soil_8_0515',
                              'albnir_soil_9_0515', 'albnir_soil_10_0515',
                              'albnir_soil_11_0515', 'albnir_soil_12_0515',
                              'albnir_soil_13_0515', 'albnir_soil_14_0515',
                              'albnir_soil_15_0515', 'albnir_soil_16_0515',
                              'albnir_soil_17_0515', 'albnir_soil_18_0515',
                              'albnir_soil_19_0515', 'albnir_soil_20_0515'
    cfnam_albnir_soil(:,15) = 'albnir_soil_1_0525', 'albnir_soil_2_0525',
                              'albnir_soil_3_0525', 'albnir_soil_4_0525',
                              'albnir_soil_5_0525', 'albnir_soil_6_0525',
                              'albnir_soil_7_0525', 'albnir_soil_8_0525',
                              'albnir_soil_9_0525', 'albnir_soil_10_0525',
                              'albnir_soil_11_0525', 'albnir_soil_12_0525',
                              'albnir_soil_13_0525', 'albnir_soil_14_0525',
                              'albnir_soil_15_0525', 'albnir_soil_16_0525',
                              'albnir_soil_17_0525', 'albnir_soil_18_0525',
                              'albnir_soil_19_0525', 'albnir_soil_20_0525'
    cfnam_albnir_soil(:,16) = 'albnir_soil_1_0605', 'albnir_soil_2_0605',
                              'albnir_soil_3_0605', 'albnir_soil_4_0605',
                              'albnir_soil_5_0605', 'albnir_soil_6_0605',
                              'albnir_soil_7_0605', 'albnir_soil_8_0605',
                              'albnir_soil_9_0605', 'albnir_soil_10_0605',
                              'albnir_soil_11_0605', 'albnir_soil_12_0605',
                              'albnir_soil_13_0605', 'albnir_soil_14_0605',
                              'albnir_soil_15_0605', 'albnir_soil_16_0605',
                              'albnir_soil_17_0605', 'albnir_soil_18_0605',
                              'albnir_soil_19_0605', 'albnir_soil_20_0605'
    cfnam_albnir_soil(:,17) = 'albnir_soil_1_0615', 'albnir_soil_2_0615',
                              'albnir_soil_3_0615', 'albnir_soil_4_0615',
                              'albnir_soil_5_0615', 'albnir_soil_6_0615',
                              'albnir_soil_7_0615', 'albnir_soil_8_0615',
                              'albnir_soil_9_0615', 'albnir_soil_10_0615',
                              'albnir_soil_11_0615', 'albnir_soil_12_0615',
                              'albnir_soil_13_0615', 'albnir_soil_14_0615',
                              'albnir_soil_15_0615', 'albnir_soil_16_0615',
                              'albnir_soil_17_0615', 'albnir_soil_18_0615',
                              'albnir_soil_19_0615', 'albnir_soil_20_0615'
    cfnam_albnir_soil(:,18) = 'albnir_soil_1_0625', 'albnir_soil_2_0625',
                              'albnir_soil_3_0625', 'albnir_soil_4_0625',
                              'albnir_soil_5_0625', 'albnir_soil_6_0625',
                              'albnir_soil_7_0625', 'albnir_soil_8_0625',
                              'albnir_soil_9_0625', 'albnir_soil_10_0625',
                              'albnir_soil_11_0625', 'albnir_soil_12_0625',
                              'albnir_soil_13_0625', 'albnir_soil_14_0625',
                              'albnir_soil_15_0625', 'albnir_soil_16_0625',
                              'albnir_soil_17_0625', 'albnir_soil_18_0625',
                              'albnir_soil_19_0625', 'albnir_soil_20_0625'
    cfnam_albnir_soil(:,19) = 'albnir_soil_1_0705', 'albnir_soil_2_0705',
                              'albnir_soil_3_0705', 'albnir_soil_4_0705',
                              'albnir_soil_5_0705', 'albnir_soil_6_0705',
                              'albnir_soil_7_0705', 'albnir_soil_8_0705',
                              'albnir_soil_9_0705', 'albnir_soil_10_0705',
                              'albnir_soil_11_0705', 'albnir_soil_12_0705',
                              'albnir_soil_13_0705', 'albnir_soil_14_0705',
                              'albnir_soil_15_0705', 'albnir_soil_16_0705',
                              'albnir_soil_17_0705', 'albnir_soil_18_0705',
                              'albnir_soil_19_0705', 'albnir_soil_20_0705'
    cfnam_albnir_soil(:,20) = 'albnir_soil_1_0715', 'albnir_soil_2_0715',
                              'albnir_soil_3_0715', 'albnir_soil_4_0715',
                              'albnir_soil_5_0715', 'albnir_soil_6_0715',
                              'albnir_soil_7_0715', 'albnir_soil_8_0715',
                              'albnir_soil_9_0715', 'albnir_soil_10_0715',
                              'albnir_soil_11_0715', 'albnir_soil_12_0715',
                              'albnir_soil_13_0715', 'albnir_soil_14_0715',
                              'albnir_soil_15_0715', 'albnir_soil_16_0715',
                              'albnir_soil_17_0715', 'albnir_soil_18_0715',
                              'albnir_soil_19_0715', 'albnir_soil_20_0715'
    cfnam_albnir_soil(:,21) = 'albnir_soil_1_0725', 'albnir_soil_2_0725',
                              'albnir_soil_3_0725', 'albnir_soil_4_0725',
                              'albnir_soil_5_0725', 'albnir_soil_6_0725',
                              'albnir_soil_7_0725', 'albnir_soil_8_0725',
                              'albnir_soil_9_0725', 'albnir_soil_10_0725',
                              'albnir_soil_11_0725', 'albnir_soil_12_0725',
                              'albnir_soil_13_0725', 'albnir_soil_14_0725',
                              'albnir_soil_15_0725', 'albnir_soil_16_0725',
                              'albnir_soil_17_0725', 'albnir_soil_18_0725',
                              'albnir_soil_19_0725', 'albnir_soil_20_0725'
    cfnam_albnir_soil(:,22) = 'albnir_soil_1_0805', 'albnir_soil_2_0805',
                              'albnir_soil_3_0805', 'albnir_soil_4_0805',
                              'albnir_soil_5_0805', 'albnir_soil_6_0805',
                              'albnir_soil_7_0805', 'albnir_soil_8_0805',
                              'albnir_soil_9_0805', 'albnir_soil_10_0805',
                              'albnir_soil_11_0805', 'albnir_soil_12_0805',
                              'albnir_soil_13_0805', 'albnir_soil_14_0805',
                              'albnir_soil_15_0805', 'albnir_soil_16_0805',
                              'albnir_soil_17_0805', 'albnir_soil_18_0805',
                              'albnir_soil_19_0805', 'albnir_soil_20_0805'
    cfnam_albnir_soil(:,23) = 'albnir_soil_1_0815', 'albnir_soil_2_0815',
                              'albnir_soil_3_0815', 'albnir_soil_4_0815',
                              'albnir_soil_5_0815', 'albnir_soil_6_0815',
                              'albnir_soil_7_0815', 'albnir_soil_8_0815',
                              'albnir_soil_9_0815', 'albnir_soil_10_0815',
                              'albnir_soil_11_0815', 'albnir_soil_12_0815',
                              'albnir_soil_13_0815', 'albnir_soil_14_0815',
                              'albnir_soil_15_0815', 'albnir_soil_16_0815',
                              'albnir_soil_17_0815', 'albnir_soil_18_0815',
                              'albnir_soil_19_0815', 'albnir_soil_20_0815'
    cfnam_albnir_soil(:,24) = 'albnir_soil_1_0825', 'albnir_soil_2_0825',
                              'albnir_soil_3_0825', 'albnir_soil_4_0825',
                              'albnir_soil_5_0825', 'albnir_soil_6_0825',
                              'albnir_soil_7_0825', 'albnir_soil_8_0825',
                              'albnir_soil_9_0825', 'albnir_soil_10_0825',
                              'albnir_soil_11_0825', 'albnir_soil_12_0825',
                              'albnir_soil_13_0825', 'albnir_soil_14_0825',
                              'albnir_soil_15_0825', 'albnir_soil_16_0825',
                              'albnir_soil_17_0825', 'albnir_soil_18_0825',
                              'albnir_soil_19_0825', 'albnir_soil_20_0825'
    cfnam_albnir_soil(:,25) = 'albnir_soil_1_0905', 'albnir_soil_2_0905',
                              'albnir_soil_3_0905', 'albnir_soil_4_0905',
                              'albnir_soil_5_0905', 'albnir_soil_6_0905',
                              'albnir_soil_7_0905', 'albnir_soil_8_0905',
                              'albnir_soil_9_0905', 'albnir_soil_10_0905',
                              'albnir_soil_11_0905', 'albnir_soil_12_0905',
                              'albnir_soil_13_0905', 'albnir_soil_14_0905',
                              'albnir_soil_15_0905', 'albnir_soil_16_0905',
                              'albnir_soil_17_0905', 'albnir_soil_18_0905',
                              'albnir_soil_19_0905', 'albnir_soil_20_0905'
    cfnam_albnir_soil(:,26) = 'albnir_soil_1_0915', 'albnir_soil_2_0915',
                              'albnir_soil_3_0915', 'albnir_soil_4_0915',
                              'albnir_soil_5_0915', 'albnir_soil_6_0915',
                              'albnir_soil_7_0915', 'albnir_soil_8_0915',
                              'albnir_soil_9_0915', 'albnir_soil_10_0915',
                              'albnir_soil_11_0915', 'albnir_soil_12_0915',
                              'albnir_soil_13_0915', 'albnir_soil_14_0915',
                              'albnir_soil_15_0915', 'albnir_soil_16_0915',
                              'albnir_soil_17_0915', 'albnir_soil_18_0915',
                              'albnir_soil_19_0915', 'albnir_soil_20_0915'
    cfnam_albnir_soil(:,27) = 'albnir_soil_1_0925', 'albnir_soil_2_0925',
                              'albnir_soil_3_0925', 'albnir_soil_4_0925',
                              'albnir_soil_5_0925', 'albnir_soil_6_0925',
                              'albnir_soil_7_0925', 'albnir_soil_8_0925',
                              'albnir_soil_9_0925', 'albnir_soil_10_0925',
                              'albnir_soil_11_0925', 'albnir_soil_12_0925',
                              'albnir_soil_13_0925', 'albnir_soil_14_0925',
                              'albnir_soil_15_0925', 'albnir_soil_16_0925',
                              'albnir_soil_17_0925', 'albnir_soil_18_0925',
                              'albnir_soil_19_0925', 'albnir_soil_20_0925'
    cfnam_albnir_soil(:,28) = 'albnir_soil_1_1005', 'albnir_soil_2_1005',
                              'albnir_soil_3_1005', 'albnir_soil_4_1005',
                              'albnir_soil_5_1005', 'albnir_soil_6_1005',
                              'albnir_soil_7_1005', 'albnir_soil_8_1005',
                              'albnir_soil_9_1005', 'albnir_soil_10_1005',
                              'albnir_soil_11_1005', 'albnir_soil_12_1005',
                              'albnir_soil_13_1005', 'albnir_soil_14_1005',
                              'albnir_soil_15_1005', 'albnir_soil_16_1005',
                              'albnir_soil_17_1005', 'albnir_soil_18_1005',
                              'albnir_soil_19_1005', 'albnir_soil_20_1005'
    cfnam_albnir_soil(:,29) = 'albnir_soil_1_1015', 'albnir_soil_2_1015',
                              'albnir_soil_3_1015', 'albnir_soil_4_1015',
                              'albnir_soil_5_1015', 'albnir_soil_6_1015',
                              'albnir_soil_7_1015', 'albnir_soil_8_1015',
                              'albnir_soil_9_1015', 'albnir_soil_10_1015',
                              'albnir_soil_11_1015', 'albnir_soil_12_1015',
                              'albnir_soil_13_1015', 'albnir_soil_14_1015',
                              'albnir_soil_15_1015', 'albnir_soil_16_1015',
                              'albnir_soil_17_1015', 'albnir_soil_18_1015',
                              'albnir_soil_19_1015', 'albnir_soil_20_1015'
    cfnam_albnir_soil(:,30) = 'albnir_soil_1_1025', 'albnir_soil_2_1025',
                              'albnir_soil_3_1025', 'albnir_soil_4_1025',
                              'albnir_soil_5_1025', 'albnir_soil_6_1025',
                              'albnir_soil_7_1025', 'albnir_soil_8_1025',
                              'albnir_soil_9_1025', 'albnir_soil_10_1025',
                              'albnir_soil_11_1025', 'albnir_soil_12_1025',
                              'albnir_soil_13_1025', 'albnir_soil_14_1025',
                              'albnir_soil_15_1025', 'albnir_soil_16_1025',
                              'albnir_soil_17_1025', 'albnir_soil_18_1025',
                              'albnir_soil_19_1025', 'albnir_soil_20_1025'
    cfnam_albnir_soil(:,31) = 'albnir_soil_1_1105', 'albnir_soil_2_1105',
                              'albnir_soil_3_1105', 'albnir_soil_4_1105',
                              'albnir_soil_5_1105', 'albnir_soil_6_1105',
                              'albnir_soil_7_1105', 'albnir_soil_8_1105',
                              'albnir_soil_9_1105', 'albnir_soil_10_1105',
                              'albnir_soil_11_1105', 'albnir_soil_12_1105',
                              'albnir_soil_13_1105', 'albnir_soil_14_1105',
                              'albnir_soil_15_1105', 'albnir_soil_16_1105',
                              'albnir_soil_17_1105', 'albnir_soil_18_1105',
                              'albnir_soil_19_1105', 'albnir_soil_20_1105'
    cfnam_albnir_soil(:,32) = 'albnir_soil_1_1115', 'albnir_soil_2_1115',
                              'albnir_soil_3_1115', 'albnir_soil_4_1115',
                              'albnir_soil_5_1115', 'albnir_soil_6_1115',
                              'albnir_soil_7_1115', 'albnir_soil_8_1115',
                              'albnir_soil_9_1115', 'albnir_soil_10_1115',
                              'albnir_soil_11_1115', 'albnir_soil_12_1115',
                              'albnir_soil_13_1115', 'albnir_soil_14_1115',
                              'albnir_soil_15_1115', 'albnir_soil_16_1115',
                              'albnir_soil_17_1115', 'albnir_soil_18_1115',
                              'albnir_soil_19_1115', 'albnir_soil_20_1115'
    cfnam_albnir_soil(:,33) = 'albnir_soil_1_1125', 'albnir_soil_2_1125',
                              'albnir_soil_3_1125', 'albnir_soil_4_1125',
                              'albnir_soil_5_1125', 'albnir_soil_6_1125',
                              'albnir_soil_7_1125', 'albnir_soil_8_1125',
                              'albnir_soil_9_1125', 'albnir_soil_10_1125',
                              'albnir_soil_11_1125', 'albnir_soil_12_1125',
                              'albnir_soil_13_1125', 'albnir_soil_14_1125',
                              'albnir_soil_15_1125', 'albnir_soil_16_1125',
                              'albnir_soil_17_1125', 'albnir_soil_18_1125',
                              'albnir_soil_19_1125', 'albnir_soil_20_1125'
    cfnam_albnir_soil(:,34) = 'albnir_soil_1_1205', 'albnir_soil_2_1205',
                              'albnir_soil_3_1205', 'albnir_soil_4_1205',
                              'albnir_soil_5_1205', 'albnir_soil_6_1205',
                              'albnir_soil_7_1205', 'albnir_soil_8_1205',
                              'albnir_soil_9_1205', 'albnir_soil_10_1205',
                              'albnir_soil_11_1205', 'albnir_soil_12_1205',
                              'albnir_soil_13_1205', 'albnir_soil_14_1205',