&nam_cover
    ycover = 'ecosg_final_map'
    ycoverfiletype = 'DIRECT'
		       XRM_COVER = 0.01
/

&nam_data_flake
    ywater_depth = 'GlobalLakeDepth'
    ywater_depthfiletype = 'DIRECT'
    ywater_depth_status = 'GlobalLakeStatus'
/

&NAM_DATA_ISBA
    CFNAM_ALBNIR_SOIL(:,1) = 'ALB_SAT_NI_0105_c', 'ALB_SAT_NI_0105_c',
                             'ALB_SAT_NI_0105_c', 'ALB_SAT_NI_0105_c',
                             'ALB_SAT_NI_0105_c', 'ALB_SAT_NI_0105_c',
                             'ALB_SAT_NI_0105_c', 'ALB_SAT_NI_0105_c',
                             'ALB_SAT_NI_0105_c', 'ALB_SAT_NI_0105_c',
                             'ALB_SAT_NI_0105_c', 'ALB_SAT_NI_0105_c',
                             'ALB_SAT_NI_0105_c', 'ALB_SAT_NI_0105_c',
                             'ALB_SAT_NI_0105_c', 'ALB_SAT_NI_0105_c',
                             'ALB_SAT_NI_0105_c', 'ALB_SAT_NI_0105_c',
                             'ALB_SAT_NI_0105_c', 'ALB_SAT_NI_0105_c'
    CFNAM_ALBNIR_SOIL(:,2) = 'ALB_SAT_NI_0115_c', 'ALB_SAT_NI_0115_c',
                             'ALB_SAT_NI_0115_c', 'ALB_SAT_NI_0115_c',
                             'ALB_SAT_NI_0115_c', 'ALB_SAT_NI_0115_c',
                             'ALB_SAT_NI_0115_c', 'ALB_SAT_NI_0115_c',
                             'ALB_SAT_NI_0115_c', 'ALB_SAT_NI_0115_c',
                             'ALB_SAT_NI_0115_c', 'ALB_SAT_NI_0115_c',
                             'ALB_SAT_NI_0115_c', 'ALB_SAT_NI_0115_c',
                             'ALB_SAT_NI_0115_c', 'ALB_SAT_NI_0115_c',
                             'ALB_SAT_NI_0115_c', 'ALB_SAT_NI_0115_c',
                             'ALB_SAT_NI_0115_c', 'ALB_SAT_NI_0115_c'
    CFNAM_ALBNIR_SOIL(:,3) = 'ALB_SAT_NI_0125_c', 'ALB_SAT_NI_0125_c',
                             'ALB_SAT_NI_0125_c', 'ALB_SAT_NI_0125_c',
                             'ALB_SAT_NI_0125_c', 'ALB_SAT_NI_0125_c',
                             'ALB_SAT_NI_0125_c', 'ALB_SAT_NI_0125_c',
                             'ALB_SAT_NI_0125_c', 'ALB_SAT_NI_0125_c',
                             'ALB_SAT_NI_0125_c', 'ALB_SAT_NI_0125_c',
                             'ALB_SAT_NI_0125_c', 'ALB_SAT_NI_0125_c',
                             'ALB_SAT_NI_0125_c', 'ALB_SAT_NI_0125_c',
                             'ALB_SAT_NI_0125_c', 'ALB_SAT_NI_0125_c',
                             'ALB_SAT_NI_0125_c', 'ALB_SAT_NI_0125_c'
    CFNAM_ALBNIR_SOIL(:,4) = 'ALB_SAT_NI_0205_c', 'ALB_SAT_NI_0205_c',
                             'ALB_SAT_NI_0205_c', 'ALB_SAT_NI_0205_c',
                             'ALB_SAT_NI_0205_c', 'ALB_SAT_NI_0205_c',
                             'ALB_SAT_NI_0205_c', 'ALB_SAT_NI_0205_c',
                             'ALB_SAT_NI_0205_c', 'ALB_SAT_NI_0205_c',
                             'ALB_SAT_NI_0205_c', 'ALB_SAT_NI_0205_c',
                             'ALB_SAT_NI_0205_c', 'ALB_SAT_NI_0205_c',
                             'ALB_SAT_NI_0205_c', 'ALB_SAT_NI_0205_c',
                             'ALB_SAT_NI_0205_c', 'ALB_SAT_NI_0205_c',
                             'ALB_SAT_NI_0205_c', 'ALB_SAT_NI_0205_c'
    CFNAM_ALBNIR_SOIL(:,5) = 'ALB_SAT_NI_0215_c', 'ALB_SAT_NI_0215_c',
                             'ALB_SAT_NI_0215_c', 'ALB_SAT_NI_0215_c',
                             'ALB_SAT_NI_0215_c', 'ALB_SAT_NI_0215_c',
                             'ALB_SAT_NI_0215_c', 'ALB_SAT_NI_0215_c',
                             'ALB_SAT_NI_0215_c', 'ALB_SAT_NI_0215_c',
                             'ALB_SAT_NI_0215_c', 'ALB_SAT_NI_0215_c',
                             'ALB_SAT_NI_0215_c', 'ALB_SAT_NI_0215_c',
                             'ALB_SAT_NI_0215_c', 'ALB_SAT_NI_0215_c',
                             'ALB_SAT_NI_0215_c', 'ALB_SAT_NI_0215_c',
                             'ALB_SAT_NI_0215_c', 'ALB_SAT_NI_0215_c'
    CFNAM_ALBNIR_SOIL(:,6) = 'ALB_SAT_NI_0225_c', 'ALB_SAT_NI_0225_c',
                             'ALB_SAT_NI_0225_c', 'ALB_SAT_NI_0225_c',
                             'ALB_SAT_NI_0225_c', 'ALB_SAT_NI_0225_c',
                             'ALB_SAT_NI_0225_c', 'ALB_SAT_NI_0225_c',
                             'ALB_SAT_NI_0225_c', 'ALB_SAT_NI_0225_c',
                             'ALB_SAT_NI_0225_c', 'ALB_SAT_NI_0225_c',
                             'ALB_SAT_NI_0225_c', 'ALB_SAT_NI_0225_c',
                             'ALB_SAT_NI_0225_c', 'ALB_SAT_NI_0225_c',
                             'ALB_SAT_NI_0225_c', 'ALB_SAT_NI_0225_c',
                             'ALB_SAT_NI_0225_c', 'ALB_SAT_NI_0225_c'
    CFNAM_ALBNIR_SOIL(:,7) = 'ALB_SAT_NI_0305_c', 'ALB_SAT_NI_0305_c',
                             'ALB_SAT_NI_0305_c', 'ALB_SAT_NI_0305_c',
                             'ALB_SAT_NI_0305_c', 'ALB_SAT_NI_0305_c',
                             'ALB_SAT_NI_0305_c', 'ALB_SAT_NI_0305_c',
                             'ALB_SAT_NI_0305_c', 'ALB_SAT_NI_0305_c',
                             'ALB_SAT_NI_0305_c', 'ALB_SAT_NI_0305_c',
                             'ALB_SAT_NI_0305_c', 'ALB_SAT_NI_0305_c',
                             'ALB_SAT_NI_0305_c', 'ALB_SAT_NI_0305_c',
                             'ALB_SAT_NI_0305_c', 'ALB_SAT_NI_0305_c',
                             'ALB_SAT_NI_0305_c', 'ALB_SAT_NI_0305_c'
    CFNAM_ALBNIR_SOIL(:,8) = 'ALB_SAT_NI_0315_c', 'ALB_SAT_NI_0315_c',
                             'ALB_SAT_NI_0315_c', 'ALB_SAT_NI_0315_c',
                             'ALB_SAT_NI_0315_c', 'ALB_SAT_NI_0315_c',
                             'ALB_SAT_NI_0315_c', 'ALB_SAT_NI_0315_c',
                             'ALB_SAT_NI_0315_c', 'ALB_SAT_NI_0315_c',
                             'ALB_SAT_NI_0315_c', 'ALB_SAT_NI_0315_c',
                             'ALB_SAT_NI_0315_c', 'ALB_SAT_NI_0315_c',
                             'ALB_SAT_NI_0315_c', 'ALB_SAT_NI_0315_c',
                             'ALB_SAT_NI_0315_c', 'ALB_SAT_NI_0315_c',
                             'ALB_SAT_NI_0315_c', 'ALB_SAT_NI_0315_c'
    CFNAM_ALBNIR_SOIL(:,9) = 'ALB_SAT_NI_0325_c', 'ALB_SAT_NI_0325_c',
                             'ALB_SAT_NI_0325_c', 'ALB_SAT_NI_0325_c',
                             'ALB_SAT_NI_0325_c', 'ALB_SAT_NI_0325_c',
                             'ALB_SAT_NI_0325_c', 'ALB_SAT_NI_0325_c',
                             'ALB_SAT_NI_0325_c', 'ALB_SAT_NI_0325_c',
                             'ALB_SAT_NI_0325_c', 'ALB_SAT_NI_0325_c',
                             'ALB_SAT_NI_0325_c', 'ALB_SAT_NI_0325_c',
                             'ALB_SAT_NI_0325_c', 'ALB_SAT_NI_0325_c',
                             'ALB_SAT_NI_0325_c', 'ALB_SAT_NI_0325_c',
                             'ALB_SAT_NI_0325_c', 'ALB_SAT_NI_0325_c'
    CFNAM_ALBNIR_SOIL(:,10) = 'ALB_SAT_NI_0405_c', 'ALB_SAT_NI_0405_c',
                              'ALB_SAT_NI_0405_c', 'ALB_SAT_NI_0405_c',
                              'ALB_SAT_NI_0405_c', 'ALB_SAT_NI_0405_c',
                              'ALB_SAT_NI_0405_c', 'ALB_SAT_NI_0405_c',
                              'ALB_SAT_NI_0405_c', 'ALB_SAT_NI_0405_c',
                              'ALB_SAT_NI_0405_c', 'ALB_SAT_NI_0405_c',
                              'ALB_SAT_NI_0405_c', 'ALB_SAT_NI_0405_c',
                              'ALB_SAT_NI_0405_c', 'ALB_SAT_NI_0405_c',
                              'ALB_SAT_NI_0405_c', 'ALB_SAT_NI_0405_c',
                              'ALB_SAT_NI_0405_c', 'ALB_SAT_NI_0405_c'
    CFNAM_ALBNIR_SOIL(:,11) = 'ALB_SAT_NI_0415_c', 'ALB_SAT_NI_0415_c',
                              'ALB_SAT_NI_0415_c', 'ALB_SAT_NI_0415_c',
                              'ALB_SAT_NI_0415_c', 'ALB_SAT_NI_0415_c',
                              'ALB_SAT_NI_0415_c', 'ALB_SAT_NI_0415_c',
                              'ALB_SAT_NI_0415_c', 'ALB_SAT_NI_0415_c',
                              'ALB_SAT_NI_0415_c', 'ALB_SAT_NI_0415_c',
                              'ALB_SAT_NI_0415_c', 'ALB_SAT_NI_0415_c',
                              'ALB_SAT_NI_0415_c', 'ALB_SAT_NI_0415_c',
                              'ALB_SAT_NI_0415_c', 'ALB_SAT_NI_0415_c',
                              'ALB_SAT_NI_0415_c', 'ALB_SAT_NI_0415_c'
    CFNAM_ALBNIR_SOIL(:,12) = 'ALB_SAT_NI_0425_c', 'ALB_SAT_NI_0425_c',
                              'ALB_SAT_NI_0425_c', 'ALB_SAT_NI_0425_c',
                              'ALB_SAT_NI_0425_c', 'ALB_SAT_NI_0425_c',
                              'ALB_SAT_NI_0425_c', 'ALB_SAT_NI_0425_c',
                              'ALB_SAT_NI_0425_c', 'ALB_SAT_NI_0425_c',
                              'ALB_SAT_NI_0425_c', 'ALB_SAT_NI_0425_c',
                              'ALB_SAT_NI_0425_c', 'ALB_SAT_NI_0425_c',
                              'ALB_SAT_NI_0425_c', 'ALB_SAT_NI_0425_c',
                              'ALB_SAT_NI_0425_c', 'ALB_SAT_NI_0425_c',
                              'ALB_SAT_NI_0425_c', 'ALB_SAT_NI_0425_c'
    CFNAM_ALBNIR_SOIL(:,13) = 'ALB_SAT_NI_0505_c', 'ALB_SAT_NI_0505_c',
                              'ALB_SAT_NI_0505_c', 'ALB_SAT_NI_0505_c',
                              'ALB_SAT_NI_0505_c', 'ALB_SAT_NI_0505_c',
                              'ALB_SAT_NI_0505_c', 'ALB_SAT_NI_0505_c',
                              'ALB_SAT_NI_0505_c', 'ALB_SAT_NI_0505_c',
                              'ALB_SAT_NI_0505_c', 'ALB_SAT_NI_0505_c',
                              'ALB_SAT_NI_0505_c', 'ALB_SAT_NI_0505_c',
                              'ALB_SAT_NI_0505_c', 'ALB_SAT_NI_0505_c',
                              'ALB_SAT_NI_0505_c', 'ALB_SAT_NI_0505_c',
                              'ALB_SAT_NI_0505_c', 'ALB_SAT_NI_0505_c'
    CFNAM_ALBNIR_SOIL(:,14) = 'ALB_SAT_NI_0515_c', 'ALB_SAT_NI_0515_c',
                              'ALB_SAT_NI_0515_c', 'ALB_SAT_NI_0515_c',
                              'ALB_SAT_NI_0515_c', 'ALB_SAT_NI_0515_c',
                              'ALB_SAT_NI_0515_c', 'ALB_SAT_NI_0515_c',
                              'ALB_SAT_NI_0515_c', 'ALB_SAT_NI_0515_c',
                              'ALB_SAT_NI_0515_c', 'ALB_SAT_NI_0515_c',
                              'ALB_SAT_NI_0515_c', 'ALB_SAT_NI_0515_c',
                              'ALB_SAT_NI_0515_c', 'ALB_SAT_NI_0515_c',
                              'ALB_SAT_NI_0515_c', 'ALB_SAT_NI_0515_c',
                              'ALB_SAT_NI_0515_c', 'ALB_SAT_NI_0515_c'
    CFNAM_ALBNIR_SOIL(:,15) = 'ALB_SAT_NI_0525_c', 'ALB_SAT_NI_0525_c',
                              'ALB_SAT_NI_0525_c', 'ALB_SAT_NI_0525_c',
                              'ALB_SAT_NI_0525_c', 'ALB_SAT_NI_0525_c',
                              'ALB_SAT_NI_0525_c', 'ALB_SAT_NI_0525_c',
                              'ALB_SAT_NI_0525_c', 'ALB_SAT_NI_0525_c',
                              'ALB_SAT_NI_0525_c', 'ALB_SAT_NI_0525_c',
                              'ALB_SAT_NI_0525_c', 'ALB_SAT_NI_0525_c',
                              'ALB_SAT_NI_0525_c', 'ALB_SAT_NI_0525_c',
                              'ALB_SAT_NI_0525_c', 'ALB_SAT_NI_0525_c',
                              'ALB_SAT_NI_0525_c', 'ALB_SAT_NI_0525_c'
    CFNAM_ALBNIR_SOIL(:,16) = 'ALB_SAT_NI_0605_c', 'ALB_SAT_NI_0605_c',
                              'ALB_SAT_NI_0605_c', 'ALB_SAT_NI_0605_c',
                              'ALB_SAT_NI_0605_c', 'ALB_SAT_NI_0605_c',
                              'ALB_SAT_NI_0605_c', 'ALB_SAT_NI_0605_c',
                              'ALB_SAT_NI_0605_c', 'ALB_SAT_NI_0605_c',
                              'ALB_SAT_NI_0605_c', 'ALB_SAT_NI_0605_c',
                              'ALB_SAT_NI_0605_c', 'ALB_SAT_NI_0605_c',
                              'ALB_SAT_NI_0605_c', 'ALB_SAT_NI_0605_c',
                              'ALB_SAT_NI_0605_c', 'ALB_SAT_NI_0605_c',
                              'ALB_SAT_NI_0605_c', 'ALB_SAT_NI_0605_c'
    CFNAM_ALBNIR_SOIL(:,17) = 'ALB_SAT_NI_0615_c', 'ALB_SAT_NI_0615_c',
                              'ALB_SAT_NI_0615_c', 'ALB_SAT_NI_0615_c',
                              'ALB_SAT_NI_0615_c', 'ALB_SAT_NI_0615_c',
                              'ALB_SAT_NI_0615_c', 'ALB_SAT_NI_0615_c',
                              'ALB_SAT_NI_0615_c', 'ALB_SAT_NI_0615_c',
                              'ALB_SAT_NI_0615_c', 'ALB_SAT_NI_0615_c',
                              'ALB_SAT_NI_0615_c', 'ALB_SAT_NI_0615_c',
                              'ALB_SAT_NI_0615_c', 'ALB_SAT_NI_0615_c',
                              'ALB_SAT_NI_0615_c', 'ALB_SAT_NI_0615_c',
                              'ALB_SAT_NI_0615_c', 'ALB_SAT_NI_0615_c'
    CFNAM_ALBNIR_SOIL(:,18) = 'ALB_SAT_NI_0625_c', 'ALB_SAT_NI_0625_c',
                              'ALB_SAT_NI_0625_c', 'ALB_SAT_NI_0625_c',
                              'ALB_SAT_NI_0625_c', 'ALB_SAT_NI_0625_c',
                              'ALB_SAT_NI_0625_c', 'ALB_SAT_NI_0625_c',
                              'ALB_SAT_NI_0625_c', 'ALB_SAT_NI_0625_c',
                              'ALB_SAT_NI_0625_c', 'ALB_SAT_NI_0625_c',
                              'ALB_SAT_NI_0625_c', 'ALB_SAT_NI_0625_c',
                              'ALB_SAT_NI_0625_c', 'ALB_SAT_NI_0625_c',
                              'ALB_SAT_NI_0625_c', 'ALB_SAT_NI_0625_c',
                              'ALB_SAT_NI_0625_c', 'ALB_SAT_NI_0625_c'
    CFNAM_ALBNIR_SOIL(:,19) = 'ALB_SAT_NI_0705_c', 'ALB_SAT_NI_0705_c',
                              'ALB_SAT_NI_0705_c', 'ALB_SAT_NI_0705_c',
                              'ALB_SAT_NI_0705_c', 'ALB_SAT_NI_0705_c',
                              'ALB_SAT_NI_0705_c', 'ALB_SAT_NI_0705_c',
                              'ALB_SAT_NI_0705_c', 'ALB_SAT_NI_0705_c',
                              'ALB_SAT_NI_0705_c', 'ALB_SAT_NI_0705_c',
                              'ALB_SAT_NI_0705_c', 'ALB_SAT_NI_0705_c',
                              'ALB_SAT_NI_0705_c', 'ALB_SAT_NI_0705_c',
                              'ALB_SAT_NI_0705_c', 'ALB_SAT_NI_0705_c',
                              'ALB_SAT_NI_0705_c', 'ALB_SAT_NI_0705_c'
    CFNAM_ALBNIR_SOIL(:,20) = 'ALB_SAT_NI_0715_c', 'ALB_SAT_NI_0715_c',
                              'ALB_SAT_NI_0715_c', 'ALB_SAT_NI_0715_c',
                              'ALB_SAT_NI_0715_c', 'ALB_SAT_NI_0715_c',
                              'ALB_SAT_NI_0715_c', 'ALB_SAT_NI_0715_c',
                              'ALB_SAT_NI_0715_c', 'ALB_SAT_NI_0715_c',
                              'ALB_SAT_NI_0715_c', 'ALB_SAT_NI_0715_c',
                              'ALB_SAT_NI_0715_c', 'ALB_SAT_NI_0715_c',
                              'ALB_SAT_NI_0715_c', 'ALB_SAT_NI_0715_c',
                              'ALB_SAT_NI_0715_c', 'ALB_SAT_NI_0715_c',
                              'ALB_SAT_NI_0715_c', 'ALB_SAT_NI_0715_c'
    CFNAM_ALBNIR_SOIL(:,21) = 'ALB_SAT_NI_0725_c', 'ALB_SAT_NI_0725_c',
                              'ALB_SAT_NI_0725_c', 'ALB_SAT_NI_0725_c',
                              'ALB_SAT_NI_0725_c', 'ALB_SAT_NI_0725_c',
                              'ALB_SAT_NI_0725_c', 'ALB_SAT_NI_0725_c',
                              'ALB_SAT_NI_0725_c', 'ALB_SAT_NI_0725_c',
                              'ALB_SAT_NI_0725_c', 'ALB_SAT_NI_0725_c',
                              'ALB_SAT_NI_0725_c', 'ALB_SAT_NI_0725_c',
                              'ALB_SAT_NI_0725_c', 'ALB_SAT_NI_0725_c',
                              'ALB_SAT_NI_0725_c', 'ALB_SAT_NI_0725_c',
                              'ALB_SAT_NI_0725_c', 'ALB_SAT_NI_0725_c'
    CFNAM_ALBNIR_SOIL(:,22) = 'ALB_SAT_NI_0805_c', 'ALB_SAT_NI_0805_c',
                              'ALB_SAT_NI_0805_c', 'ALB_SAT_NI_0805_c',
                              'ALB_SAT_NI_0805_c', 'ALB_SAT_NI_0805_c',
                              'ALB_SAT_NI_0805_c', 'ALB_SAT_NI_0805_c',
                              'ALB_SAT_NI_0805_c', 'ALB_SAT_NI_0805_c',
                              'ALB_SAT_NI_0805_c', 'ALB_SAT_NI_0805_c',
                              'ALB_SAT_NI_0805_c', 'ALB_SAT_NI_0805_c',
                              'ALB_SAT_NI_0805_c', 'ALB_SAT_NI_0805_c',
                              'ALB_SAT_NI_0805_c', 'ALB_SAT_NI_0805_c',
                              'ALB_SAT_NI_0805_c', 'ALB_SAT_NI_0805_c'
    CFNAM_ALBNIR_SOIL(:,23) = 'ALB_SAT_NI_0815_c', 'ALB_SAT_NI_0815_c',
                              'ALB_SAT_NI_0815_c', 'ALB_SAT_NI_0815_c',
                              'ALB_SAT_NI_0815_c', 'ALB_SAT_NI_0815_c',
                              'ALB_SAT_NI_0815_c', 'ALB_SAT_NI_0815_c',
                              'ALB_SAT_NI_0815_c', 'ALB_SAT_NI_0815_c',
                              'ALB_SAT_NI_0815_c', 'ALB_SAT_NI_0815_c',
                              'ALB_SAT_NI_0815_c', 'ALB_SAT_NI_0815_c',
                              'ALB_SAT_NI_0815_c', 'ALB_SAT_NI_0815_c',
                              'ALB_SAT_NI_0815_c', 'ALB_SAT_NI_0815_c',
                              'ALB_SAT_NI_0815_c', 'ALB_SAT_NI_0815_c'
    CFNAM_ALBNIR_SOIL(:,24) = 'ALB_SAT_NI_0825_c', 'ALB_SAT_NI_0825_c',
                              'ALB_SAT_NI_0825_c', 'ALB_SAT_NI_0825_c',
                              'ALB_SAT_NI_0825_c', 'ALB_SAT_NI_0825_c',
                              'ALB_SAT_NI_0825_c', 'ALB_SAT_NI_0825_c',
                              'ALB_SAT_NI_0825_c', 'ALB_SAT_NI_0825_c',
                              'ALB_SAT_NI_0825_c', 'ALB_SAT_NI_0825_c',
                              'ALB_SAT_NI_0825_c', 'ALB_SAT_NI_0825_c',
                              'ALB_SAT_NI_0825_c', 'ALB_SAT_NI_0825_c',
                              'ALB_SAT_NI_0825_c', 'ALB_SAT_NI_0825_c',
                              'ALB_SAT_NI_0825_c', 'ALB_SAT_NI_0825_c'
    CFNAM_ALBNIR_SOIL(:,25) = 'ALB_SAT_NI_0905_c', 'ALB_SAT_NI_0905_c',
                              'ALB_SAT_NI_0905_c', 'ALB_SAT_NI_0905_c',
                              'ALB_SAT_NI_0905_c', 'ALB_SAT_NI_0905_c',
                              'ALB_SAT_NI_0905_c', 'ALB_SAT_NI_0905_c',
                              'ALB_SAT_NI_0905_c', 'ALB_SAT_NI_0905_c',
                              'ALB_SAT_NI_0905_c', 'ALB_SAT_NI_0905_c',
                              'ALB_SAT_NI_0905_c', 'ALB_SAT_NI_0905_c',
                              'ALB_SAT_NI_0905_c', 'ALB_SAT_NI_0905_c',
                              'ALB_SAT_NI_0905_c', 'ALB_SAT_NI_0905_c',
                              'ALB_SAT_NI_0905_c', 'ALB_SAT_NI_0905_c'
    CFNAM_ALBNIR_SOIL(:,26) = 'ALB_SAT_NI_0915_c', 'ALB_SAT_NI_0915_c',
                              'ALB_SAT_NI_0915_c', 'ALB_SAT_NI_0915_c',
                              'ALB_SAT_NI_0915_c', 'ALB_SAT_NI_0915_c',
                              'ALB_SAT_NI_0915_c', 'ALB_SAT_NI_0915_c',
                              'ALB_SAT_NI_0915_c', 'ALB_SAT_NI_0915_c',
                              'ALB_SAT_NI_0915_c', 'ALB_SAT_NI_0915_c',
                              'ALB_SAT_NI_0915_c', 'ALB_SAT_NI_0915_c',
                              'ALB_SAT_NI_0915_c', 'ALB_SAT_NI_0915_c',
                              'ALB_SAT_NI_0915_c', 'ALB_SAT_NI_0915_c',
                              'ALB_SAT_NI_0915_c', 'ALB_SAT_NI_0915_c'
    CFNAM_ALBNIR_SOIL(:,27) = 'ALB_SAT_NI_0925_c', 'ALB_SAT_NI_0925_c',
                              'ALB_SAT_NI_0925_c', 'ALB_SAT_NI_0925_c',
                              'ALB_SAT_NI_0925_c', 'ALB_SAT_NI_0925_c',
                              'ALB_SAT_NI_0925_c', 'ALB_SAT_NI_0925_c',
                              'ALB_SAT_NI_0925_c', 'ALB_SAT_NI_0925_c',
                              'ALB_SAT_NI_0925_c', 'ALB_SAT_NI_0925_c',
                              'ALB_SAT_NI_0925_c', 'ALB_SAT_NI_0925_c',
                              'ALB_SAT_NI_0925_c', 'ALB_SAT_NI_0925_c',
                              'ALB_SAT_NI_0925_c', 'ALB_SAT_NI_0925_c',
                              'ALB_SAT_NI_0925_c', 'ALB_SAT_NI_0925_c'
    CFNAM_ALBNIR_SOIL(:,28) = 'ALB_SAT_NI_1005_c', 'ALB_SAT_NI_1005_c',
                              'ALB_SAT_NI_1005_c', 'ALB_SAT_NI_1005_c',
                              'ALB_SAT_NI_1005_c', 'ALB_SAT_NI_1005_c',
                              'ALB_SAT_NI_1005_c', 'ALB_SAT_NI_1005_c',
                              'ALB_SAT_NI_1005_c', 'ALB_SAT_NI_1005_c',
                              'ALB_SAT_NI_1005_c', 'ALB_SAT_NI_1005_c',
                              'ALB_SAT_NI_1005_c', 'ALB_SAT_NI_1005_c',
                              'ALB_SAT_NI_1005_c', 'ALB_SAT_NI_1005_c',
                              'ALB_SAT_NI_1005_c', 'ALB_SAT_NI_1005_c',
                              'ALB_SAT_NI_1005_c', 'ALB_SAT_NI_1005_c'
    CFNAM_ALBNIR_SOIL(:,29) = 'ALB_SAT_NI_1015_c', 'ALB_SAT_NI_1015_c',
                              'ALB_SAT_NI_1015_c', 'ALB_SAT_NI_1015_c',
                              'ALB_SAT_NI_1015_c', 'ALB_SAT_NI_1015_c',
                              'ALB_SAT_NI_1015_c', 'ALB_SAT_NI_1015_c',
                              'ALB_SAT_NI_1015_c', 'ALB_SAT_NI_1015_c',
                              'ALB_SAT_NI_1015_c', 'ALB_SAT_NI_1015_c',
                              'ALB_SAT_NI_1015_c', 'ALB_SAT_NI_1015_c',
                              'ALB_SAT_NI_1015_c', 'ALB_SAT_NI_1015_c',
                              'ALB_SAT_NI_1015_c', 'ALB_SAT_NI_1015_c',
                              'ALB_SAT_NI_1015_c', 'ALB_SAT_NI_1015_c'
    CFNAM_ALBNIR_SOIL(:,30) = 'ALB_SAT_NI_1025_c', 'ALB_SAT_NI_1025_c',
                              'ALB_SAT_NI_1025_c', 'ALB_SAT_NI_1025_c',
                              'ALB_SAT_NI_1025_c', 'ALB_SAT_NI_1025_c',
                              'ALB_SAT_NI_1025_c', 'ALB_SAT_NI_1025_c',
                              'ALB_SAT_NI_1025_c', 'ALB_SAT_NI_1025_c',
                              'ALB_SAT_NI_1025_c', 'ALB_SAT_NI_1025_c',
                              'ALB_SAT_NI_1025_c', 'ALB_SAT_NI_1025_c',
                              'ALB_SAT_NI_1025_c', 'ALB_SAT_NI_1025_c',
                              'ALB_SAT_NI_1025_c', 'ALB_SAT_NI_1025_c',
                              'ALB_SAT_NI_1025_c', 'ALB_SAT_NI_1025_c'
    CFNAM_ALBNIR_SOIL(:,31) = 'ALB_SAT_NI_1105_c', 'ALB_SAT_NI_1105_c',
                              'ALB_SAT_NI_1105_c', 'ALB_SAT_NI_1105_c',
                              'ALB_SAT_NI_1105_c', 'ALB_SAT_NI_1105_c',
                              'ALB_SAT_NI_1105_c', 'ALB_SAT_NI_1105_c',
                              'ALB_SAT_NI_1105_c', 'ALB_SAT_NI_1105_c',
                              'ALB_SAT_NI_1105_c', 'ALB_SAT_NI_1105_c',
                              'ALB_SAT_NI_1105_c', 'ALB_SAT_NI_1105_c',
                              'ALB_SAT_NI_1105_c', 'ALB_SAT_NI_1105_c',
                              'ALB_SAT_NI_1105_c', 'ALB_SAT_NI_1105_c',
                              'ALB_SAT_NI_1105_c', 'ALB_SAT_NI_1105_c'
    CFNAM_ALBNIR_SOIL(:,32) = 'ALB_SAT_NI_1115_c', 'ALB_SAT_NI_1115_c',
                              'ALB_SAT_NI_1115_c', 'ALB_SAT_NI_1115_c',
                              'ALB_SAT_NI_1115_c', 'ALB_SAT_NI_1115_c',
                              'ALB_SAT_NI_1115_c', 'ALB_SAT_NI_1115_c',
                              'ALB_SAT_NI_1115_c', 'ALB_SAT_NI_1115_c',
                              'ALB_SAT_NI_1115_c', 'ALB_SAT_NI_1115_c',
                              'ALB_SAT_NI_1115_c', 'ALB_SAT_NI_1115_c',
                              'ALB_SAT_NI_1115_c', 'ALB_SAT_NI_1115_c',
                              'ALB_SAT_NI_1115_c', 'ALB_SAT_NI_1115_c',
                              'ALB_SAT_NI_1115_c', 'ALB_SAT_NI_1115_c'
    CFNAM_ALBNIR_SOIL(:,33) = 'ALB_SAT_NI_1125_c', 'ALB_SAT_NI_1125_c',
                              'ALB_SAT_NI_1125_c', 'ALB_SAT_NI_1125_c',
                              'ALB_SAT_NI_1125_c', 'ALB_SAT_NI_1125_c',
                              'ALB_SAT_NI_1125_c', 'ALB_SAT_NI_1125_c',
                              'ALB_SAT_NI_1125_c', 'ALB_SAT_NI_1125_c',
                              'ALB_SAT_NI_1125_c', 'ALB_SAT_NI_1125_c',
                              'ALB_SAT_NI_1125_c', 'ALB_SAT_NI_1125_c',
                              'ALB_SAT_NI_1125_c', 'ALB_SAT_NI_1125_c',
                              'ALB_SAT_NI_1125_c', 'ALB_SAT_NI_1125_c',
                              'ALB_SAT_NI_1125_c', 'ALB_SAT_NI_1125_c'
    CFNAM_ALBNIR_SOIL(:,34) = 'ALB_SAT_NI_1205_c', 'ALB_SAT_NI_1205_c',
                              'ALB_SAT_NI_1205_c', 'ALB_SAT_NI_1205_c',
                              'ALB_SAT_NI_1205_c', 'ALB_SAT_NI_1205_c',
                              'ALB_SAT_NI_1205_c', 'ALB_SAT_NI_1205_c',
                              'ALB_SAT_NI_1205_c', 'ALB_SAT_NI_1205_c',
                              'ALB_SAT_NI_1205_c', 'ALB_SAT_NI_1205_c',
                              'ALB_SAT_NI_1205_c', 'ALB_SAT_NI_1205_c',
                              'ALB_SAT_NI_1205_c', 'ALB_SAT_NI_1205_c',
                              'ALB_SAT_NI_1205_c', 'ALB_SAT_NI_1205_c',
                              'ALB_SAT_NI_1205_c', 'ALB_SAT_NI_1205_c'
    CFNAM_ALBNIR_SOIL(:,35) = 'ALB_SAT_NI_1215_c', 'ALB_SAT_NI_1215_c',
                              'ALB_SAT_NI_1215_c', 'ALB_SAT_NI_1215_c',
                              'ALB_SAT_NI_1215_c', 'ALB_SAT_NI_1215_c',
                              'ALB_SAT_NI_1215_c', 'ALB_SAT_NI_1215_c',
                              'ALB_SAT_NI_1215_c', 'ALB_SAT_NI_1215_c',
                              'ALB_SAT_NI_1215_c', 'ALB_SAT_NI_1215_c',
                              'ALB_SAT_NI_1215_c', 'ALB_SAT_NI_1215_c',
                              'ALB_SAT_NI_1215_c', 'ALB_SAT_NI_1215_c',
                              'ALB_SAT_NI_1215_c', 'ALB_SAT_NI_1215_c',
                              'ALB_SAT_NI_1215_c', 'ALB_SAT_NI_1215_c'
    CFNAM_ALBNIR_SOIL(:,36) = 'ALB_SAT_NI_1225_c', 'ALB_SAT_NI_1225_c',
                              'ALB_SAT_NI_1225_c', 'ALB_SAT_NI_1225_c',
                              'ALB_SAT_NI_1225_c', 'ALB_SAT_NI_1225_c',
                              'ALB_SAT_NI_1225_c', 'ALB_SAT_NI_1225_c',
                              'ALB_SAT_NI_1225_c', 'ALB_SAT_NI_1225_c',
                              'ALB_SAT_NI_1225_c', 'ALB_SAT_NI_1225_c',
                              'ALB_SAT_NI_1225_c', 'ALB_SAT_NI_1225_c',
                              'ALB_SAT_NI_1225_c', 'ALB_SAT_NI_1225_c',
                              'ALB_SAT_NI_1225_c', 'ALB_SAT_NI_1225_c',
                              'ALB_SAT_NI_1225_c', 'ALB_SAT_NI_1225_c'
    CFNAM_ALBNIR_VEG(:,1) = 'ALB_SAT_NI_0105_c', 'ALB_SAT_NI_0105_c', 'ALB_SAT_NI_0105_c',
                            'ALB_SAT_NI_0105_c', 'ALB_SAT_NI_0105_c', 'ALB_SAT_NI_0105_c',
                            'ALB_SAT_NI_0105_c', 'ALB_SAT_NI_0105_c', 'ALB_SAT_NI_0105_c',
                            'ALB_SAT_NI_0105_c', 'ALB_SAT_NI_0105_c',
                            'ALB_SAT_NI_0105_c', 'ALB_SAT_NI_0105_c',
                            'ALB_SAT_NI_0105_c', 'ALB_SAT_NI_0105_c',
                            'ALB_SAT_NI_0105_c', 'ALB_SAT_NI_0105_c',
                            'ALB_SAT_NI_0105_c', 'ALB_SAT_NI_0105_c',
                            'ALB_SAT_NI_0105_c'
    CFNAM_ALBNIR_VEG(:,2) = 'ALB_SAT_NI_0115_c', 'ALB_SAT_NI_0115_c', 'ALB_SAT_NI_0115_c',
                            'ALB_SAT_NI_0115_c', 'ALB_SAT_NI_0115_c', 'ALB_SAT_NI_0115_c',
                            'ALB_SAT_NI_0115_c', 'ALB_SAT_NI_0115_c', 'ALB_SAT_NI_0115_c',
                            'ALB_SAT_NI_0115_c', 'ALB_SAT_NI_0115_c',
                            'ALB_SAT_NI_0115_c', 'ALB_SAT_NI_0115_c',
                            'ALB_SAT_NI_0115_c', 'ALB_SAT_NI_0115_c',
                            'ALB_SAT_NI_0115_c', 'ALB_SAT_NI_0115_c',
                            'ALB_SAT_NI_0115_c', 'ALB_SAT_NI_0115_c',
                            'ALB_SAT_NI_0115_c'
    CFNAM_ALBNIR_VEG(:,3) = 'ALB_SAT_NI_0125_c', 'ALB_SAT_NI_0125_c', 'ALB_SAT_NI_0125_c',
                            'ALB_SAT_NI_0125_c', 'ALB_SAT_NI_0125_c', 'ALB_SAT_NI_0125_c',
                            'ALB_SAT_NI_0125_c', 'ALB_SAT_NI_0125_c', 'ALB_SAT_NI_0125_c',
                            'ALB_SAT_NI_0125_c', 'ALB_SAT_NI_0125_c',
                            'ALB_SAT_NI_0125_c', 'ALB_SAT_NI_0125_c',
                            'ALB_SAT_NI_0125_c', 'ALB_SAT_NI_0125_c',
                            'ALB_SAT_NI_0125_c', 'ALB_SAT_NI_0125_c',
                            'ALB_SAT_NI_0125_c', 'ALB_SAT_NI_0125_c',
                            'ALB_SAT_NI_0125_c'
    CFNAM_ALBNIR_VEG(:,4) = 'ALB_SAT_NI_0205_c', 'ALB_SAT_NI_0205_c', 'ALB_SAT_NI_0205_c',
                            'ALB_SAT_NI_0205_c', 'ALB_SAT_NI_0205_c', 'ALB_SAT_NI_0205_c',
                            'ALB_SAT_NI_0205_c', 'ALB_SAT_NI_0205_c', 'ALB_SAT_NI_0205_c',
                            'ALB_SAT_NI_0205_c', 'ALB_SAT_NI_0205_c',
                            'ALB_SAT_NI_0205_c', 'ALB_SAT_NI_0205_c',
                            'ALB_SAT_NI_0205_c', 'ALB_SAT_NI_0205_c',
                            'ALB_SAT_NI_0205_c', 'ALB_SAT_NI_0205_c',
                            'ALB_SAT_NI_0205_c', 'ALB_SAT_NI_0205_c',
                            'ALB_SAT_NI_0205_c'
    CFNAM_ALBNIR_VEG(:,5) = 'ALB_SAT_NI_0215_c', 'ALB_SAT_NI_0215_c', 'ALB_SAT_NI_0215_c',
                            'ALB_SAT_NI_0215_c', 'ALB_SAT_NI_0215_c', 'ALB_SAT_NI_0215_c',
                            'ALB_SAT_NI_0215_c', 'ALB_SAT_NI_0215_c', 'ALB_SAT_NI_0215_c',
                            'ALB_SAT_NI_0215_c', 'ALB_SAT_NI_0215_c',
                            'ALB_SAT_NI_0215_c', 'ALB_SAT_NI_0215_c',
                            'ALB_SAT_NI_0215_c', 'ALB_SAT_NI_0215_c',
                            'ALB_SAT_NI_0215_c', 'ALB_SAT_NI_0215_c',
                            'ALB_SAT_NI_0215_c', 'ALB_SAT_NI_0215_c',
                            'ALB_SAT_NI_0215_c'
    CFNAM_ALBNIR_VEG(:,6) = 'ALB_SAT_NI_0225_c', 'ALB_SAT_NI_0225_c', 'ALB_SAT_NI_0225_c',
                            'ALB_SAT_NI_0225_c', 'ALB_SAT_NI_0225_c', 'ALB_SAT_NI_0225_c',
                            'ALB_SAT_NI_0225_c', 'ALB_SAT_NI_0225_c', 'ALB_SAT_NI_0225_c',
                            'ALB_SAT_NI_0225_c', 'ALB_SAT_NI_0225_c',
                            'ALB_SAT_NI_0225_c', 'ALB_SAT_NI_0225_c',
                            'ALB_SAT_NI_0225_c', 'ALB_SAT_NI_0225_c',
                            'ALB_SAT_NI_0225_c', 'ALB_SAT_NI_0225_c',